Version 4
SHEET 1 3284 784
WIRE 256 -96 176 -96
WIRE 256 -64 256 -96
WIRE 176 -32 176 -96
WIRE 176 -32 -32 -32
WIRE 208 -32 176 -32
WIRE 288 -32 256 -32
WIRE 256 16 256 0
WIRE 288 16 288 -32
WIRE 288 16 256 16
WIRE -32 48 -32 -32
WIRE 256 80 256 16
WIRE -32 208 -32 128
WIRE 112 208 -32 208
WIRE 256 208 256 160
WIRE 256 208 112 208
FLAG 112 208 0
SYMBOL cnm25mod_nmos4 208 -64 R0
SYMATTR SpiceModel ptm180modn
SYMATTR InstName U1
SYMBOL voltage -32 32 R0
SYMATTR InstName V1
SYMATTR Value 1
SYMBOL current 256 80 R0
SYMATTR InstName I1
SYMATTR Value 10µ
TEXT -360 -24 Left 2 ;Parameter Settings
TEXT -352 232 Left 2 ;Simulation Settings
TEXT -360 -128 Left 2 ;Model Libraries
TEXT -360 -200 Left 2 ;Example of Board Bias
TEXT -360 -96 Left 2 !.lib ptm180mod_ttt.lib
TEXT -336 88 Left 2 !.dc dec V1 0 100 10
