Version 4
SHEET 1 880 696
WIRE 0 400 -192 400
WIRE 192 400 0 400
WIRE 224 400 192 400
WIRE 0 432 0 416
WIRE 96 432 48 432
WIRE 144 432 96 432
WIRE 192 432 192 416
WIRE 672 432 672 304
WIRE 0 480 0 464
WIRE 96 480 96 432
WIRE 96 480 0 480
WIRE 192 512 192 464
WIRE -192 544 -192 480
WIRE -96 544 -192 544
WIRE -192 560 -192 544
WIRE 0 560 0 480
WIRE -96 592 -96 544
WIRE -96 592 -144 592
WIRE -48 592 -96 592
WIRE -192 608 -192 592
WIRE 0 608 0 592
WIRE 0 624 -192 624
WIRE -192 672 -192 624
FLAG -192 672 0
FLAG 0 400 VDD
FLAG 672 304 VDD
FLAG 672 512 0
FLAG 192 512 IOUT
SYMBOL voltage 672 416 R0
SYMATTR InstName V1
SYMATTR Value 1.8
SYMBOL current -192 400 R0
SYMATTR InstName I1
SYMATTR Value 1
SYMBOL cnm25mod_nmos4 -144 560 M0
SYMATTR InstName U1
SYMBOL cnm25mod_pmos4 48 400 M0
SYMATTR InstName U2
SYMBOL cnm25mod_pmos4 144 400 R0
SYMATTR InstName U3
SYMBOL cnm25mod_nmos4 -48 560 R0
SYMATTR InstName U4
TEXT -384 448 Left 2 !.tran 1m
TEXT -344 256 Left 2 !.lib ptm180mod_ttt.lib
TEXT -672 512 Left 2 ;Parameter Settings
TEXT -672 648 Left 2 ;Simulation Settings
TEXT -672 440 Left 2 !.lib ptm180mod_ttt.lib
TEXT -664 408 Left 2 ;Model Libraries
TEXT -664 680 Left 2 !.dc I1 0 1m
TEXT -672 576 Left 2 !.param iref=300u
TEXT -672 544 Left 2 !.param vdd=1.8
