Version 4
SHEET 1 3284 784
WIRE 224 -144 160 -144
WIRE 512 -144 224 -144
WIRE 224 -80 224 -144
WIRE 512 -48 512 -144
WIRE 224 64 224 0
WIRE 304 64 224 64
WIRE 0 80 0 48
WIRE 224 80 224 64
WIRE 512 80 512 32
WIRE 224 112 192 112
WIRE 304 112 304 64
WIRE 304 112 272 112
WIRE 464 112 304 112
WIRE 528 112 512 112
WIRE 192 144 192 112
WIRE 224 144 192 144
WIRE 528 144 528 112
WIRE 528 144 512 144
WIRE 0 208 0 160
WIRE 224 208 224 144
WIRE 224 208 0 208
WIRE 512 208 512 144
WIRE 512 208 224 208
FLAG 160 -144 VDD
FLAG 0 48 VDD
FLAG 0 208 0
SYMBOL voltage 0 64 R0
SYMATTR InstName V1
SYMATTR Value 1.8
SYMBOL cnm25mod_nmos4 272 80 M0
SYMATTR SpiceModel ptm180modn
SYMATTR Value l=0.36u w=4u
SYMATTR InstName U1
SYMBOL current 224 -80 R0
SYMATTR InstName I1
SYMATTR Value 100µ
SYMBOL cnm25mod_nmos4 464 80 R0
SYMATTR SpiceModel ptm180modn
SYMATTR Value l=0.36u w=4u
SYMATTR InstName U2
SYMBOL res 496 -64 R0
SYMATTR InstName R1
SYMATTR Value 1
TEXT -360 -24 Left 2 ;Parameter Settings
TEXT -360 88 Left 2 ;Simulation Settings
TEXT -360 -128 Left 2 ;Model Libraries
TEXT -360 -200 Left 2 ;Example of Current Mirror
TEXT -360 -96 Left 2 !.lib ptm180mod_ttt.lib
TEXT -360 136 Left 2 !.dc dec I1 0 1m 100u
