Version 4
SHEET 1 1644 796
WIRE 0 -80 -304 -80
WIRE 528 -80 0 -80
WIRE 560 -80 528 -80
WIRE 832 -80 560 -80
WIRE 928 -80 832 -80
WIRE 1232 -80 928 -80
WIRE 560 -16 560 -80
WIRE 560 -16 544 -16
WIRE 832 -16 832 -80
WIRE 848 -16 832 -16
WIRE 544 16 544 -16
WIRE 560 16 544 16
WIRE 672 16 608 16
WIRE 784 16 672 16
WIRE 848 16 848 -16
WIRE 848 16 832 16
WIRE 560 80 560 48
WIRE 560 80 -448 80
WIRE 832 112 832 48
WIRE 832 112 144 112
WIRE 1232 112 1232 -80
WIRE 1264 112 1232 112
WIRE 560 144 560 80
WIRE 832 144 832 112
WIRE 1184 144 1056 144
WIRE 1264 144 1264 112
WIRE 1264 144 1232 144
WIRE 528 176 528 -80
WIRE 560 176 528 176
WIRE 736 176 608 176
WIRE 784 176 736 176
WIRE 928 176 928 -80
WIRE 928 176 832 176
WIRE -448 208 -448 80
WIRE -304 208 -304 -80
WIRE 0 208 0 -80
WIRE 144 208 144 112
WIRE 1232 208 1232 176
WIRE 1536 208 1232 208
WIRE 560 224 560 208
WIRE 672 224 672 16
WIRE 672 224 560 224
WIRE 736 224 736 176
WIRE 832 224 832 208
WIRE 1056 224 1056 144
WIRE 1056 224 832 224
WIRE 1088 224 1056 224
WIRE 1232 224 1232 208
WIRE -352 240 -448 240
WIRE 0 240 -304 240
WIRE 144 240 48 240
WIRE 240 240 192 240
WIRE 560 240 560 224
WIRE 832 240 832 224
WIRE 560 272 464 272
WIRE 688 272 608 272
WIRE 784 272 688 272
WIRE 928 272 832 272
WIRE -304 320 -304 272
WIRE 560 320 560 304
WIRE 560 320 -304 320
WIRE 688 320 688 272
WIRE -448 352 -448 272
WIRE -176 352 -448 352
WIRE 144 352 144 272
WIRE 144 352 -176 352
WIRE 0 384 0 272
WIRE 560 384 560 320
WIRE 560 384 0 384
WIRE 832 384 832 304
WIRE 832 384 560 384
WIRE -640 416 -640 224
WIRE -576 416 -640 416
WIRE 560 416 480 416
WIRE 688 416 608 416
WIRE 784 416 688 416
WIRE 848 416 832 416
WIRE -640 448 -640 416
WIRE -176 448 -176 352
WIRE 688 448 688 416
WIRE 1232 448 1232 224
WIRE 480 464 480 416
WIRE 560 464 560 448
WIRE 560 464 480 464
WIRE 832 464 832 448
WIRE 848 464 848 416
WIRE 848 464 832 464
WIRE -640 480 -672 480
WIRE -576 480 -576 416
WIRE -576 480 -592 480
WIRE -432 480 -576 480
WIRE -224 480 -432 480
WIRE -144 480 -176 480
WIRE 464 480 464 272
WIRE 560 480 560 464
WIRE 560 480 464 480
WIRE 832 480 832 464
WIRE 928 480 928 272
WIRE 928 480 832 480
WIRE 1264 480 1232 480
WIRE 560 496 560 480
WIRE 720 496 560 496
WIRE 832 496 832 480
WIRE 832 496 720 496
WIRE -144 512 -144 480
WIRE -144 512 -176 512
WIRE 1264 512 1264 480
WIRE 1264 512 1232 512
WIRE -672 528 -672 480
WIRE -640 528 -640 512
WIRE -640 528 -672 528
WIRE -432 528 -432 480
WIRE 16 528 -432 528
WIRE 240 528 16 528
WIRE 432 528 240 528
WIRE 1184 528 1184 480
WIRE 1184 528 432 528
WIRE -640 608 -640 528
WIRE -416 608 -640 608
WIRE -176 608 -176 512
WIRE -176 608 -416 608
WIRE 720 608 720 496
WIRE 720 608 -176 608
WIRE 1232 608 1232 512
WIRE 1232 608 720 608
WIRE -416 704 -416 608
WIRE 16 752 16 528
WIRE 240 752 240 528
WIRE 432 752 432 528
FLAG 832 -80 VDD
FLAG 240 240 VIN
IOPIN 240 240 In
FLAG -496 240 VIP
IOPIN -496 240 In
FLAG -416 704 VSS
IOPIN -416 704 In
FLAG -640 224 IREF
IOPIN -640 224 In
FLAG 1536 208 VOUT
IOPIN 1536 208 Out
FLAG 688 448 Vb1
FLAG 688 320 Vb2
FLAG 736 224 Vb3
SYMBOL cnm25mod_pmos4 608 -16 M0
SYMATTR InstName U3
SYMBOL cnm25mod_pmos4 784 -16 R0
SYMATTR InstName U4
SYMBOL cnm25mod_pmos4 784 144 R0
SYMATTR InstName U5
SYMBOL cnm25mod_pmos4 608 144 M0
SYMATTR InstName U6
SYMBOL cnm25mod_nmos4 784 384 R0
SYMATTR InstName U8
SYMBOL cnm25mod_nmos4 608 384 M0
SYMATTR InstName U10
SYMBOL cnm25mod_nmos4 784 240 R0
SYMATTR InstName U7
SYMBOL cnm25mod_nmos4 608 240 M0
SYMATTR InstName U9
SYMBOL cnm25mod_nmos4 192 208 M0
SYMATTR InstName U1
SYMBOL cnm25mod_nmos4 -496 208 R0
SYMATTR InstName U2
SYMBOL cnm25mod_pmos4 -352 208 R0
SYMATTR InstName U11
SYMBOL cnm25mod_pmos4 48 208 M0
SYMATTR InstName U12
SYMBOL cnm25mod_nmos4 -592 448 M0
WINDOW 38 -54 46 Left 0
WINDOW 3 -59 57 Left 0
SYMATTR SpiceModel ptm180modn
SYMATTR Value l=0.36u w=15u
SYMATTR InstName U13
SYMBOL cnm25mod_nmos4 -224 448 R0
WINDOW 38 -54 46 Left 0
WINDOW 3 -59 57 Left 0
SYMATTR SpiceModel ptm180modn
SYMATTR Value l=0.54u w=60u
SYMATTR InstName U14
SYMBOL cnm25mod_nmos4 1184 448 R0
WINDOW 38 -54 46 Left 0
WINDOW 3 -59 57 Left 0
SYMATTR SpiceModel ptm180modn
SYMATTR Value l=0.54u w=600u
SYMATTR InstName U15
SYMBOL cnm25mod_pmos4 1184 112 R0
SYMATTR SpiceModel ptm180modp
SYMATTR Value l=0.54u w=6000u
SYMATTR InstName U16
SYMBOL cap 1168 240 R270
WINDOW 0 32 32 VTop 2
WINDOW 3 0 32 VBottom 2
SYMATTR InstName C1
SYMATTR Value 4p
SYMBOL res 1184 208 R90
WINDOW 0 0 56 VBottom 2
WINDOW 3 32 56 VTop 2
SYMATTR InstName R1
SYMATTR Value 50
